Metadata-Version: 1.0
Name: autodyna
Version: 2.2.1
Summary: A collection of all LS-DYNA card writing tools
Home-page: https://gitlab.arup.com/kevin.stanton/AutomatedCardGenerator_LS-DYNA
Author: Kevin Stanton
Author-email: kevin.stanton@arup.com
License: UNKNOWN
Description: UNKNOWN
Platform: UNKNOWN
